*Heading
** Job name: valsalva_28mm_IVC_COARSE_Dynamic Model name: valsalva_28mm_IVC_COARSE_Dynamic
** Generated by: Abaqus/CAE 2016
*Preprint, echo=NO, model=NO, history=NO, contact=NO
**
** PARTS
**
*Part, name=GIVCF_Rev1
*Node
      1,           5.,  0.665000021,          -2.
      2,           5.,   1.01600003,          -2.
      3,           5.,  0.938661575,  -2.38880634
      4,           5.,  0.614379883,  -2.25448442
      5,   39.8938408,   16.4921322,  -5.12810564
      6,   41.9806366,   17.0405445,   -5.2371912
      7,   41.9806366,   16.9822292,  -5.53035927
      8,   39.8938408,   16.4338188,  -5.42127323
      9,   40.0674286,   16.1871681,  -5.12008858
     10,   41.9806366,   16.6899605,  -5.22009993
     11,   41.9806366,   16.6517906,  -5.41198683
     12,   40.0674286,   16.1490002,    -5.311975
     13,   18.2432041,   4.23231649,  -2.68947649
     14,   18.2376785,    4.2125473,  -2.83792782
     15,   18.2432041,   4.17400217,  -2.98264432
     16,   18.4167957,   3.92735267,  -2.68145967
     17,   18.4167957,   3.88918424,  -2.87334609
     18,           6.,  0.956480145,  -2.34263945
     19,           6.,  0.996477842,  -2.19821167
     20,           6.,   1.01479483,  -2.04947162
** ... 5200 like lines cut
*Element, type=C3D8I
   1,  809, 2701, 3214, 2827,    1,   61,  985,   72
   2, 2701, 2702, 3215, 3214,   61,   62,  986,  985
   3, 2702, 2703, 3216, 3215,   62,   63,  987,  986
   4, 2703,  798, 2686, 3216,   63,    2,   64,  987
   5, 2827, 3214, 3217, 2828,   72,  985,  988,   71
   6, 3214, 3215, 3218, 3217,  985,  986,  989,  988
   7, 3215, 3216, 3219, 3218,  986,  987,  990,  989
   8, 3216, 2686, 2687, 3219,  987,   64,   65,  990
   9, 2828, 3217, 3220, 2829,   71,  988,  991,   70
  10, 3217, 3218, 3221, 3220,  988,  989,  992,  991
  11, 3218, 3219, 3222, 3221,  989,  990,  993,  992
  12, 3219, 2687, 2688, 3222,  990,   65,   66,  993
  13, 2829, 3220, 2824,  872,   70,  991,   69,    4
  14, 3220, 3221, 2825, 2824,  991,  992,   68,   69
  15, 3221, 3222, 2826, 2825,  992,  993,   67,   68
  16, 3222, 2688,  802, 2826,  993,   66,    3,   67
  17,   26,  806, 3223, 2830,  809, 2701, 3214, 2827
  18,  806,  807, 3224, 3223, 2701, 2702, 3215, 3214
  19,  807,  808, 3225, 3224, 2702, 2703, 3216, 3215
  20,  808,   24, 2689, 3225, 2703,  798, 2686, 3216
** ... 3412 like lines cut
*Nset, nset=filter_top
   57,   58,   59,   60,  951,  952,  953,  954,  955,  956,  957,  958,  959,  960,  961,  962
  963,  964,  965,  966,  967,  968,  969,  970,  971,  972,  973,  974,  975,  976,  977,  978
  979,  980,  981,  982,  983,  984, 2851, 2852, 2853, 2854, 2855, 2856, 2857, 2858, 2859, 2860
 2861, 2862, 2863, 2864, 2865, 2866, 2867, 2868, 2869, 2870, 2871, 2872, 2873, 2874, 2875, 2876
 2877, 2878, 2879, 2880, 2881, 2882, 2883, 2884, 2885, 2886, 2887, 2888, 2889, 2890, 2891, 2892
 2893, 2894, 2895, 2896, 2897, 2898, 2899, 2900, 2901, 2902, 2903, 2904, 2905, 2906, 2907
*Elset, elset=filter_top, generate
 3357,  3432,     1
*Nset, nset=all_filter_geom, generate
    1,  5220,     1
*Elset, elset=all_filter_geom, generate
    1,  3432,     1
*Elset, elset=All, generate
    1,  3432,     1
*Nset, nset=filter_top2
   57,   58,   59,   60,  922,  923,  924,  925,  940,  941,  942,  943,  951,  952,  953,  954
  955,  956,  957,  958,  959,  960,  961,  962,  963,  964,  965,  966,  967,  968,  969,  970
  971,  972,  973,  974,  975,  976,  977,  978,  979,  980,  981,  982,  983,  984, 2851, 2852
 2853, 2854, 2855, 2856, 2857, 2858, 2859, 2860, 2861, 2862, 2863, 2864, 2865, 2866, 2867, 2868
 2869, 2870, 2871, 2872, 2873, 2874, 2875, 2876, 2877, 2878, 2879, 2880, 2881, 2882, 2883, 2884
 2885, 2886, 2887, 2888, 2889, 2890, 2891, 2892, 2893, 2894, 2895, 2896, 2897, 2898, 2899, 2900
 2901, 2902, 2903, 2904, 2905, 2906, 2907, 2957, 2958, 2959, 2960, 2961, 2962, 2963, 2964, 2965
 2966, 2967, 2968, 2969, 2970, 3041, 3042, 3043, 3044, 3045, 3046, 3047, 3048, 3049, 3050, 3051
 3052, 3053, 3054, 3055, 3056, 3057, 3058, 3059, 3060, 3110, 3111, 3112, 3113, 3114, 3115, 3116
 3117, 3118, 3119, 3120, 3121, 3122, 3123, 3194, 3195, 3196, 3197, 3198, 3199, 3200, 3201, 3202
 3203, 3204, 3205, 3206, 3207, 3208, 3209, 3210, 3211, 3212, 3213, 5107, 5108, 5109, 5110, 5111
 5112, 5113, 5114, 5115, 5116, 5117, 5118, 5119, 5120, 5121, 5122, 5123, 5124, 5125, 5126, 5127
 5128, 5129, 5130, 5131, 5132, 5133, 5134, 5135, 5136, 5137, 5138, 5139, 5140, 5141, 5142, 5143
 5144, 5145, 5146, 5147, 5148, 5149, 5150, 5151, 5152, 5153, 5154, 5155, 5156, 5157, 5158, 5159
 5160, 5161, 5162, 5163, 5164, 5165, 5166, 5167, 5168, 5169, 5170, 5171, 5172, 5173, 5174, 5175
 5176, 5177, 5178, 5179, 5180, 5181, 5182, 5183, 5184, 5185, 5186, 5187, 5188, 5189, 5190, 5191
 5192, 5193, 5194, 5195, 5196, 5197, 5198, 5199, 5200, 5201, 5202, 5203, 5204, 5205, 5206, 5207
 5208, 5209, 5210, 5211, 5212, 5213, 5214, 5215, 5216, 5217, 5218, 5219, 5220
*Elset, elset=_filter_surface_S4, internal, generate
    4,  2672,     4
*Elset, elset=_filter_surface_S6, internal, generate
    1,  2669,     4
*Elset, elset=_filter_surface_S3, internal
   33,   34,   35,   36,   49,   50,   51,   52,   65,   66,   67,   68,   81,   82,   83,   84
   97,   98,   99,  100,  113,  114,  115,  116,  129,  130,  131,  132,  145,  146,  147,  148
  161,  162,  163,  164,  177,  178,  179,  180,  193,  194,  195,  196,  209,  210,  211,  212
  225,  226,  227,  228,  241,  242,  243,  244,  257,  258,  259,  260,  273,  274,  275,  276
  289,  290,  291,  292,  305,  306,  307,  308,  321,  322,  323,  324,  337,  338,  339,  340
  353,  354,  355,  356,  369,  370,  371,  372,  385,  386,  387,  388,  401,  402,  403,  404
  417,  418,  419,  420,  433,  434,  435,  436,  449,  450,  451,  452,  465,  466,  467,  468
  481,  482,  483,  484,  497,  498,  499,  500,  513,  514,  515,  516,  529,  530,  531,  532
  545,  546,  547,  548,  561,  562,  563,  564,  577,  578,  579,  580,  593,  594,  595,  596
  609,  610,  611,  612,  625,  626,  627,  628,  641,  642,  643,  644,  657,  658,  659,  660
  673,  674,  675,  676,  689,  690,  691,  692,  705,  706,  707,  708,  721,  722,  723,  724
  737,  738,  739,  740,  753,  754,  755,  756,  769,  770,  771,  772,  785,  786,  787,  788
  801,  802,  803,  804,  817,  818,  819,  820,  833,  834,  835,  836,  849,  850,  851,  852
  865,  866,  867,  868,  881,  882,  883,  884,  897,  898,  899,  900,  913,  914,  915,  916
  929,  930,  931,  932,  945,  946,  947,  948,  961,  962,  963,  964,  977,  978,  979,  980
  993,  994,  995,  996, 1009, 1010, 1011, 1012, 1025, 1026, 1027, 1028, 1041, 1042, 1043, 1044
 1057, 1058, 1059, 1060, 1073, 1074, 1075, 1076, 1089, 1090, 1091, 1092, 1105, 1106, 1107, 1108
 1121, 1122, 1123, 1124, 1137, 1138, 1139, 1140, 1153, 1154, 1155, 1156, 1169, 1170, 1171, 1172
 1185, 1186, 1187, 1188, 1201, 1202, 1203, 1204, 1217, 1218, 1219, 1220, 1233, 1234, 1235, 1236
 1249, 1250, 1251, 1252, 1265, 1266, 1267, 1268, 1281, 1282, 1283, 1284, 1297, 1298, 1299, 1300
** ... 22 like lines cut
*Elset, elset=_filter_surface_S5, internal
   45,   46,   47,   48,   61,   62,   63,   64,   77,   78,   79,   80,   93,   94,   95,   96
  109,  110,  111,  112,  125,  126,  127,  128,  141,  142,  143,  144,  157,  158,  159,  160
  173,  174,  175,  176,  189,  190,  191,  192,  205,  206,  207,  208,  221,  222,  223,  224
  237,  238,  239,  240,  253,  254,  255,  256,  269,  270,  271,  272,  285,  286,  287,  288
  301,  302,  303,  304,  317,  318,  319,  320,  333,  334,  335,  336,  349,  350,  351,  352
  365,  366,  367,  368,  381,  382,  383,  384,  397,  398,  399,  400,  413,  414,  415,  416
  429,  430,  431,  432,  445,  446,  447,  448,  461,  462,  463,  464,  477,  478,  479,  480
  493,  494,  495,  496,  509,  510,  511,  512,  525,  526,  527,  528,  541,  542,  543,  544
  557,  558,  559,  560,  573,  574,  575,  576,  589,  590,  591,  592,  605,  606,  607,  608
  621,  622,  623,  624,  637,  638,  639,  640,  653,  654,  655,  656,  669,  670,  671,  672
  685,  686,  687,  688,  701,  702,  703,  704,  717,  718,  719,  720,  733,  734,  735,  736
  749,  750,  751,  752,  765,  766,  767,  768,  781,  782,  783,  784,  797,  798,  799,  800
  813,  814,  815,  816,  829,  830,  831,  832,  845,  846,  847,  848,  861,  862,  863,  864
  877,  878,  879,  880,  893,  894,  895,  896,  909,  910,  911,  912,  925,  926,  927,  928
  941,  942,  943,  944,  957,  958,  959,  960,  973,  974,  975,  976,  989,  990,  991,  992
 1005, 1006, 1007, 1008, 1021, 1022, 1023, 1024, 1037, 1038, 1039, 1040, 1053, 1054, 1055, 1056
 1069, 1070, 1071, 1072, 1085, 1086, 1087, 1088, 1101, 1102, 1103, 1104, 1117, 1118, 1119, 1120
 1133, 1134, 1135, 1136, 1149, 1150, 1151, 1152, 1165, 1166, 1167, 1168, 1181, 1182, 1183, 1184
 1197, 1198, 1199, 1200, 1213, 1214, 1215, 1216, 1229, 1230, 1231, 1232, 1245, 1246, 1247, 1248
 1261, 1262, 1263, 1264, 1277, 1278, 1279, 1280, 1293, 1294, 1295, 1296, 1309, 1310, 1311, 1312
** ... 22 like lines cut
*Elset, elset=_filter_surface_S1, internal, generate
 2657,  2672,     1
*Surface, type=ELEMENT, name=filter_surface
_filter_surface_S4, S4
_filter_surface_S6, S6
_filter_surface_S3, S3
_filter_surface_S5, S5
_filter_surface_S1, S1
** Section: nitinol_SE508
*Solid Section, elset=All, material=ABQ_SUPER_ELASTIC_PLASTIC_SE508
,
*End Part
**  
*Part, name=IVC
*End Part
**  
*Part, name=sheath
*End Part
**  
**
** ASSEMBLY
**
*Assembly, name=Assembly
**  
*Instance, name=sheath, part=sheath
         0.5,           0.,           0.
         0.5,           0.,           0.,          0.5,           0.,           1.,          90.
*Node
      1,           0.,        -12.5,           0.
*Nset, nset=sheath-RefPt_, internal
1, 
*Surface, type=REVOLUTION, name=sheath_surface
START,          4.2, -10.3824034027761
 CIRCL,           3., -9.82071421427143,          4.4, -8.39242852856286
 CIRCL,          1.5,        -6.25,          6.5,        -6.25
 LINE,          1.5,        53.75
*Rigid Body, ref node=sheath-RefPt_, analytical surface=sheath_surface
*End Instance
**  
*Instance, name=strut_generic_IVCF, part=GIVCF_Rev1
          0., -0.390180644032257, 1.96157056080646
          0., -0.390180644032257, 1.96157056080646,           1., -0.390180644032257, 1.96157056080646, 11.2500001817377
*End Instance
**  
*Instance, name=IVC, part=IVC
         25.,           0.,           0.
         25.,           0.,           0.,          25.,  3.06161706478674e-17,           1.,          90.
*Node
      1,           0.,           0.,           0.
*Nset, nset=IVC-RefPt_, internal
1, 
*Surface, type=CYLINDER, name=IVC_surf
START,          14.,         -25.
 LINE,          14.,          25.
*Rigid Body, ref node=IVC-RefPt_, analytical surface=IVC_surf
*End Instance
**  
*Nset, nset=RP_IVC, instance=IVC
 1,
*Nset, nset=RP_sheath, instance=sheath
 1,
*End Assembly
** 
** MATERIALS
** 
*Material, name=ABQ_SUPER_ELASTIC_N3D
*Density
 6.5e-08,
*Depvar
     24,
*User Material, constants=15
40000.,  0.33,32000.,  0.33, 0.041,   6.7,  440.,  540.
   22.,   6.7,  250.,  140.,    0., 0.041,    0.
*Material, name=ABQ_SUPER_ELASTIC_PLASTIC_SE508
*Density
 6.5e-08,
*Depvar
     31,
*User Material, constants=30, unsymm
61779.,  0.33,29737.,  0.33, 0.035,   6.2,  383.,  430.
   37.,   8.5,  202.,  170.,  383.,    0.,    0.,    6.
  972., 0.074, 1076., 0.078, 1144., 0.084, 1230., 0.094
 1285., 0.108, 1311., 0.116, 1334., 0.137
*Material, name=ABQ_SUPER_ELASTIC_SE508
*Density
 6.5e-08,
*Depvar
     24,
*User Material, constants=15, unsymm
61779.,  0.33,29737.,  0.33, 0.035,   6.2,  383.,  430.
   37.,   8.5,  202.,  170.,  383.,    0.,    0.
** 
** INTERACTION PROPERTIES
** 
*Surface Interaction, name=_filter_vein_quasi_static-Prop
1.,
*Friction, slip tolerance=0.005
 0.02,
*Surface Behavior, penalty
, , 0.001
*Surface Interaction, name=filter_vein_high_friction
1.,
*Friction, slip tolerance=0.005
 0.2,
*Surface Behavior, penalty
, , 0.001
*Surface Interaction, name=sheath--filter
1.,
*Friction, slip tolerance=0.005
 0.02,
*Surface Behavior, penalty
, , 0.001
** 
** BOUNDARY CONDITIONS
** 
** Name: fix_filter Type: Displacement/Rotation
*Boundary
strut_generic_IVCF.filter_top2, 1, 1
strut_generic_IVCF.filter_top2, 2, 2
strut_generic_IVCF.filter_top2, 3, 3
** Name: move_sheath Type: Displacement/Rotation
*Boundary
RP_sheath, 1, 1
RP_sheath, 2, 2
RP_sheath, 3, 3
RP_sheath, 4, 4
RP_sheath, 5, 5
RP_sheath, 6, 6
** Name: move_vein Type: Displacement/Rotation
*Boundary
RP_IVC, 1, 1
RP_IVC, 2, 2
RP_IVC, 3, 3
RP_IVC, 4, 4
RP_IVC, 5, 5
RP_IVC, 6, 6
** 
** PREDEFINED FIELDS
** 
** Name: initial_temperature   Type: Temperature
*Initial Conditions, type=TEMPERATURE
strut_generic_IVCF.all_filter_geom, 37.
** 
** INTERACTIONS
** 
** Interaction: filter_vein_quasi_static
*Contact Pair, interaction=_filter_vein_quasi_static-Prop, type=SURFACE TO SURFACE
strut_generic_IVCF.filter_surface, IVC.IVC_surf
** Interaction: sheath_filter_quasi_static
*Contact Pair, interaction=sheath--filter
strut_generic_IVCF.filter_surface, sheath.sheath_surface
** ----------------------------------------------------------------
** 
** STEP: sheath_filter_quasi_static
** 
*Step, name=sheath_filter_quasi_static, nlgeom=YES, inc=10000, unsymm=YES
*Dynamic
0.01,1.,1e-10,0.01
** 
** BOUNDARY CONDITIONS
** 
** Name: move_sheath Type: Displacement/Rotation
*Boundary
RP_sheath, 1, 1, 50.
** 
** INTERACTIONS
** 
** Interaction: filter_vein_quasi_static
*Model Change, type=CONTACT PAIR, remove
strut_generic_IVCF.filter_surface, IVC.IVC_surf
** 
** OUTPUT REQUESTS
** 
*Restart, write, frequency=0
** 
** FIELD OUTPUT: F-Output-2
** 
*Output, field, time interval=0.01, time marks=NO
*Node Output
A, CF, RF, U, V
*Element Output, directions=YES
IVOL, LE, PE, PEEQ, PEMAG, S
*Contact Output
CDISP, CFORCE, CNAREA, CSTATUS, CSTRESS
** 
** HISTORY OUTPUT: H-Output-2
** 
*Output, history, time interval=0.01, time marks=NO
*Energy Output
ALLAE, ALLCD, ALLDMD, ALLEE, ALLFD, ALLIE, ALLJD, ALLKE, ALLKL, ALLPD, ALLQB, ALLSD, ALLSE, ALLVD, ALLWK, ETOTAL
*Contact Output
CAREA, CFNM
*End Step
** ----------------------------------------------------------------
** 
** STEP: unsheath_quasi_static
** 
*Step, name=unsheath_quasi_static, nlgeom=YES, inc=100000, unsymm=YES
*Dynamic,application=QUASI-STATIC,initial=NO
0.01,1.,1e-10,0.01
** 
** BOUNDARY CONDITIONS
** 
** Name: move_sheath Type: Displacement/Rotation
*Boundary
RP_sheath, 1, 1
** 
** INTERACTIONS
** 
** Interaction: filter_vein_quasi_static
*Model Change, type=CONTACT PAIR, add
strut_generic_IVCF.filter_surface, IVC.IVC_surf
** 
** OUTPUT REQUESTS
** 
*Restart, write, frequency=0
** 
** FIELD OUTPUT: F-Output-2
** 
*Output, field, time interval=0.01, time marks=NO
*Node Output
A, CF, RF, U, V
*Element Output, directions=YES
IVOL, LE, PE, PEEQ, PEMAG, S
*Contact Output
CDISP, CFORCE, CNAREA, CSTATUS, CSTRESS
** 
** HISTORY OUTPUT: H-Output-2
** 
*Output, history, time interval=0.01, time marks=NO
*Energy Output
ALLAE, ALLCD, ALLDMD, ALLEE, ALLFD, ALLIE, ALLJD, ALLKE, ALLKL, ALLPD, ALLQB, ALLSD, ALLSE, ALLVD, ALLWK, ETOTAL
*Contact Output
CAREA, CFNM
*End Step
** ----------------------------------------------------------------
** 
** STEP: valsalva1
** 
*Step, name=valsalva1, nlgeom=YES, inc=10000, unsymm=YES
*Dynamic
0.01,1.,1e-10,0.01
** 
** BOUNDARY CONDITIONS
** 
** Name: fix_filter Type: Displacement/Rotation
*Boundary, op=NEW
strut_generic_IVCF.filter_top2, 2, 2
strut_generic_IVCF.filter_top2, 3, 3
strut_generic_IVCF.filter_top2, 4, 4
strut_generic_IVCF.filter_top2, 5, 5
strut_generic_IVCF.filter_top2, 6, 6
** Name: move_sheath Type: Displacement/Rotation
*Boundary, op=NEW
RP_sheath, 1, 1
RP_sheath, 2, 2
RP_sheath, 3, 3
RP_sheath, 4, 4
RP_sheath, 5, 5
RP_sheath, 6, 6
** Name: move_vein Type: Displacement/Rotation
*Boundary, op=NEW
RP_IVC, 1, 1
RP_IVC, 2, 2, -7.
RP_IVC, 3, 3
RP_IVC, 4, 4
RP_IVC, 5, 5
RP_IVC, 6, 6
** 
** INTERACTIONS
** 
** Interaction: filter_vein_quasi_static
*Change Friction, interaction=_filter_vein_quasi_static-Prop
*Friction, slip tolerance=0.005
 0.2,
** 
** OUTPUT REQUESTS
** 
*Restart, write, frequency=0
** 
** FIELD OUTPUT: F-Output-2
** 
*Output, field, time interval=0.01, time marks=NO
*Node Output
A, CF, RF, U, V
*Element Output, directions=YES
IVOL, LE, PE, PEEQ, PEMAG, S
*Contact Output
CDISP, CFORCE, CNAREA, CSTATUS, CSTRESS
** 
** HISTORY OUTPUT: H-Output-2
** 
*Output, history, time interval=0.01, time marks=NO
*Energy Output
ALLAE, ALLCD, ALLDMD, ALLEE, ALLFD, ALLIE, ALLJD, ALLKE, ALLKL, ALLPD, ALLQB, ALLSD, ALLSE, ALLVD, ALLWK, ETOTAL
*Contact Output
CAREA, CFNM
*End Step
** ----------------------------------------------------------------
** 
** STEP: relax1
** 
*Step, name=relax1, nlgeom=YES, inc=10000, unsymm=YES
*Dynamic
0.01,1.,1e-10,0.01
** 
** BOUNDARY CONDITIONS
** 
** Name: move_vein Type: Displacement/Rotation
*Boundary
RP_IVC, 2, 2
** 
** OUTPUT REQUESTS
** 
*Restart, write, frequency=0
** 
** FIELD OUTPUT: F-Output-2
** 
*Output, field, time interval=0.01, time marks=NO
*Node Output
A, CF, RF, U, V
*Element Output, directions=YES
IVOL, LE, PE, PEEQ, PEMAG, S
*Contact Output
CDISP, CFORCE, CNAREA, CSTATUS, CSTRESS
** 
** HISTORY OUTPUT: H-Output-2
** 
*Output, history, time interval=0.01, time marks=NO
*Energy Output
ALLAE, ALLCD, ALLDMD, ALLEE, ALLFD, ALLIE, ALLJD, ALLKE, ALLKL, ALLPD, ALLQB, ALLSD, ALLSE, ALLVD, ALLWK, ETOTAL
*Contact Output
CAREA, CFNM
*End Step
** ----------------------------------------------------------------
** 
** STEP: valsalva2
** 
*Step, name=valsalva2, nlgeom=YES, inc=10000, unsymm=YES
*Dynamic
0.01,1.,1e-10,0.01
** 
** BOUNDARY CONDITIONS
** 
** Name: move_vein Type: Displacement/Rotation
*Boundary
RP_IVC, 2, 2, -7.
** 
** OUTPUT REQUESTS
** 
*Restart, write, frequency=0
** 
** FIELD OUTPUT: F-Output-2
** 
*Output, field, time interval=0.01, time marks=NO
*Node Output
A, CF, RF, U, V
*Element Output, directions=YES
IVOL, LE, PE, PEEQ, PEMAG, S
*Contact Output
CDISP, CFORCE, CNAREA, CSTATUS, CSTRESS
** 
** HISTORY OUTPUT: H-Output-2
** 
*Output, history, time interval=0.01, time marks=NO
*Energy Output
ALLAE, ALLCD, ALLDMD, ALLEE, ALLFD, ALLIE, ALLJD, ALLKE, ALLKL, ALLPD, ALLQB, ALLSD, ALLSE, ALLVD, ALLWK, ETOTAL
*Contact Output
CAREA, CFNM
*End Step
** ----------------------------------------------------------------
** 
** STEP: relax2
** 
*Step, name=relax2, nlgeom=YES, inc=10000, unsymm=YES
*Dynamic
0.01,1.,1e-10,0.01
** 
** BOUNDARY CONDITIONS
** 
** Name: move_vein Type: Displacement/Rotation
*Boundary
RP_IVC, 2, 2
** 
** OUTPUT REQUESTS
** 
*Restart, write, frequency=0
** 
** FIELD OUTPUT: F-Output-2
** 
*Output, field, time interval=0.01, time marks=NO
*Node Output
A, CF, RF, U, V
*Element Output, directions=YES
IVOL, LE, PE, PEEQ, PEMAG, S
*Contact Output
CDISP, CFORCE, CNAREA, CSTATUS, CSTRESS
** 
** HISTORY OUTPUT: H-Output-2
** 
*Output, history, time interval=0.01, time marks=NO
*Energy Output
ALLAE, ALLCD, ALLDMD, ALLEE, ALLFD, ALLIE, ALLJD, ALLKE, ALLKL, ALLPD, ALLQB, ALLSD, ALLSE, ALLVD, ALLWK, ETOTAL
*Contact Output
CAREA, CFNM
*End Step
** ----------------------------------------------------------------
** 
** STEP: valsalva3
** 
*Step, name=valsalva3, nlgeom=YES, inc=10000, unsymm=YES
*Dynamic
0.01,1.,1e-10,0.01
** 
** BOUNDARY CONDITIONS
** 
** Name: move_vein Type: Displacement/Rotation
*Boundary
RP_IVC, 2, 2, -7.
** 
** OUTPUT REQUESTS
** 
*Restart, write, frequency=0
** 
** FIELD OUTPUT: F-Output-2
** 
*Output, field, time interval=0.01, time marks=NO
*Node Output
A, CF, RF, U, V
*Element Output, directions=YES
IVOL, LE, PE, PEEQ, PEMAG, S
*Contact Output
CDISP, CFORCE, CNAREA, CSTATUS, CSTRESS
** 
** HISTORY OUTPUT: H-Output-2
** 
*Output, history, time interval=0.01, time marks=NO
*Energy Output
ALLAE, ALLCD, ALLDMD, ALLEE, ALLFD, ALLIE, ALLJD, ALLKE, ALLKL, ALLPD, ALLQB, ALLSD, ALLSE, ALLVD, ALLWK, ETOTAL
*Contact Output
CAREA, CFNM
*End Step
** ----------------------------------------------------------------
** 
** STEP: relax3
** 
*Step, name=relax3, nlgeom=YES, inc=10000, unsymm=YES
*Dynamic
0.01,1.,1e-10,0.01
** 
** BOUNDARY CONDITIONS
** 
** Name: move_vein Type: Displacement/Rotation
*Boundary
RP_IVC, 2, 2
** 
** OUTPUT REQUESTS
** 
*Restart, write, frequency=0
** 
** FIELD OUTPUT: F-Output-2
** 
*Output, field, time interval=0.01, time marks=NO
*Node Output
A, CF, RF, U, V
*Element Output, directions=YES
IVOL, LE, PE, PEEQ, PEMAG, S
*Contact Output
CDISP, CFORCE, CNAREA, CSTATUS, CSTRESS
** 
** HISTORY OUTPUT: H-Output-2
** 
*Output, history, time interval=0.01, time marks=NO
*Energy Output
ALLAE, ALLCD, ALLDMD, ALLEE, ALLFD, ALLIE, ALLJD, ALLKE, ALLKL, ALLPD, ALLQB, ALLSD, ALLSE, ALLVD, ALLWK, ETOTAL
*Contact Output
CAREA, CFNM
*End Step
