*Heading
** Job name: valsalva_28mm_IVC_MEDIUM Model name: valsalva_28mm_IVC_MEDIUM
** Generated by: Abaqus/CAE 2016
*Preprint, echo=NO, model=NO, history=NO, contact=NO
**
** PARTS
**
*Part, name=GIVCF_Rev1
*Node
      1,           5.,  0.665000021,          -2.
      2,           5.,   1.01600003,          -2.
      3,           5.,  0.938661575,  -2.38880634
      4,           5.,  0.614379883,  -2.25448442
      5,   39.8938408,   16.4921322,  -5.12810564
      6,   41.9806366,   17.0405445,   -5.2371912
      7,   41.9806366,   16.9822292,  -5.53035927
      8,   39.8938408,   16.4338188,  -5.42127323
      9,   40.0674286,   16.1871681,  -5.12008858
     10,   41.9806366,   16.6899605,  -5.22009993
     11,   41.9806366,   16.6517906,  -5.41198683
     12,   40.0674286,   16.1490002,    -5.311975
     13,   18.2432041,   4.23231649,  -2.68947649
     14,   18.2376785,    4.2125473,  -2.83792782
     15,   18.2432041,   4.17400217,  -2.98264432
     16,   18.4167957,   3.92735267,  -2.68145967
     17,   18.4167957,   3.88918424,  -2.87334609
     18,           6.,  0.956480145,  -2.34263945
     19,           6.,  0.996477842,  -2.19821167
     20,           6.,   1.01479483,  -2.04947162
** ... 32461 like lines cut
*Element, type=C3D8I
    1,  1589, 10157, 12322, 10887,     1,    61,  1965,    88
    2, 10157, 10158, 12323, 12322,    61,    62,  1966,  1965
    3, 10158, 10159, 12324, 12323,    62,    63,  1967,  1966
    4, 10159, 10160, 12325, 12324,    63,    64,  1968,  1967
    5, 10160, 10161, 12326, 12325,    64,    65,  1969,  1968
    6, 10161, 10162, 12327, 12326,    65,    66,  1970,  1969
    7, 10162, 10163, 12328, 12327,    66,    67,  1971,  1970
    8, 10163,  1566, 10094, 12328,    67,     2,    68,  1971
    9, 10887, 12322, 12329, 10888,    88,  1965,  1972,    87
   10, 12322, 12323, 12330, 12329,  1965,  1966,  1973,  1972
   11, 12323, 12324, 12331, 12330,  1966,  1967,  1974,  1973
   12, 12324, 12325, 12332, 12331,  1967,  1968,  1975,  1974
   13, 12325, 12326, 12333, 12332,  1968,  1969,  1976,  1975
   14, 12326, 12327, 12334, 12333,  1969,  1970,  1977,  1976
   15, 12327, 12328, 12335, 12334,  1970,  1971,  1978,  1977
   16, 12328, 10094, 10095, 12335,  1971,    68,    69,  1978
   17, 10888, 12329, 12336, 10889,    87,  1972,  1979,    86
   18, 12329, 12330, 12337, 12336,  1972,  1973,  1980,  1979
   19, 12330, 12331, 12338, 12337,  1973,  1974,  1981,  1980
   20, 12331, 12332, 12339, 12338,  1974,  1975,  1982,  1981
** ... 25964 like lines cut
*Nset, nset=filter_top
    57,    58,    59,    60,  1909,  1910,  1911,  1912,  1913,  1914,  1915,  1916,  1917,  1918,  1919,  1920
  1921,  1922,  1923,  1924,  1925,  1926,  1927,  1928,  1929,  1930,  1931,  1932,  1933,  1934,  1935,  1936
  1937,  1938,  1939,  1940,  1941,  1942,  1943,  1944,  1945,  1946,  1947,  1948,  1949,  1950,  1951,  1952
  1953,  1954,  1955,  1956,  1957,  1958,  1959,  1960,  1961,  1962,  1963,  1964, 11048, 11049, 11050, 11051
 11052, 11053, 11054, 11055, 11056, 11057, 11058, 11059, 11060, 11061, 11062, 11063, 11064, 11065, 11066, 11067
 11068, 11069, 11070, 11071, 11072, 11073, 11074, 11075, 11076, 11077, 11078, 11079, 11080, 11081, 11082, 11083
 11084, 11085, 11086, 11087, 11088, 11089, 11090, 11091, 11092, 11093, 11094, 11095, 11096, 11097, 11098, 11099
 11100, 11101, 11102, 11103, 11104, 11105, 11106, 11107, 11108, 11109, 11110, 11111, 11112, 11113, 11114, 11115
 11116, 11117, 11118, 11119, 11120, 11121, 11122, 11123, 11124, 11125, 11126, 11127, 11128, 11129, 11130, 11131
 11132, 11133, 11134, 11135, 11136, 11137, 11138, 11139, 11140, 11141, 11142, 11143, 11144, 11145, 11146, 11147
 11148, 11149, 11150, 11151, 11152, 11153, 11154, 11155, 11156, 11157, 11158, 11159, 11160, 11161, 11162, 11163
 11164, 11165, 11166, 11167, 11168, 11169, 11170, 11171, 11172, 11173, 11174, 11175, 11176, 11177, 11178, 11179
 11180, 11181, 11182, 11183, 11184, 11185, 11186, 11187, 11188, 11189, 11190, 11191, 11192, 11193, 11194, 11195
 11196, 11197, 11198, 11199, 11200, 11201, 11202, 11203, 11204, 11205, 11206, 11207, 11208, 11209, 11210, 11211
 11212, 11213, 11214, 11215, 11216, 11217, 11218, 11219, 11220, 11221, 11222, 11223, 11224, 11225, 11226, 11227
 11228, 11229, 11230, 11231, 11232, 11233, 11234, 11235, 11236, 11237, 11238, 11239, 11240, 11241, 11242, 11243
 11244, 11245, 11246, 11247, 11248, 11249, 11250, 11251, 11252, 11253, 11254, 11255, 11256, 11257
*Elset, elset=filter_top, generate
 25745,  25984,      1
*Nset, nset=all_filter_geom, generate
     1,  32481,      1
*Elset, elset=all_filter_geom, generate
     1,  25984,      1
*Elset, elset=All, generate
     1,  25984,      1
*Nset, nset=filter_top2
    57,    58,    59,    60,  1848,  1849,  1850,  1851,  1852,  1853,  1854,  1855,  1886,  1887,  1888,  1889
  1890,  1891,  1892,  1893,  1909,  1910,  1911,  1912,  1913,  1914,  1915,  1916,  1917,  1918,  1919,  1920
  1921,  1922,  1923,  1924,  1925,  1926,  1927,  1928,  1929,  1930,  1931,  1932,  1933,  1934,  1935,  1936
  1937,  1938,  1939,  1940,  1941,  1942,  1943,  1944,  1945,  1946,  1947,  1948,  1949,  1950,  1951,  1952
  1953,  1954,  1955,  1956,  1957,  1958,  1959,  1960,  1961,  1962,  1963,  1964, 11048, 11049, 11050, 11051
 11052, 11053, 11054, 11055, 11056, 11057, 11058, 11059, 11060, 11061, 11062, 11063, 11064, 11065, 11066, 11067
 11068, 11069, 11070, 11071, 11072, 11073, 11074, 11075, 11076, 11077, 11078, 11079, 11080, 11081, 11082, 11083
 11084, 11085, 11086, 11087, 11088, 11089, 11090, 11091, 11092, 11093, 11094, 11095, 11096, 11097, 11098, 11099
 11100, 11101, 11102, 11103, 11104, 11105, 11106, 11107, 11108, 11109, 11110, 11111, 11112, 11113, 11114, 11115
 11116, 11117, 11118, 11119, 11120, 11121, 11122, 11123, 11124, 11125, 11126, 11127, 11128, 11129, 11130, 11131
 11132, 11133, 11134, 11135, 11136, 11137, 11138, 11139, 11140, 11141, 11142, 11143, 11144, 11145, 11146, 11147
 11148, 11149, 11150, 11151, 11152, 11153, 11154, 11155, 11156, 11157, 11158, 11159, 11160, 11161, 11162, 11163
 11164, 11165, 11166, 11167, 11168, 11169, 11170, 11171, 11172, 11173, 11174, 11175, 11176, 11177, 11178, 11179
 11180, 11181, 11182, 11183, 11184, 11185, 11186, 11187, 11188, 11189, 11190, 11191, 11192, 11193, 11194, 11195
 11196, 11197, 11198, 11199, 11200, 11201, 11202, 11203, 11204, 11205, 11206, 11207, 11208, 11209, 11210, 11211
 11212, 11213, 11214, 11215, 11216, 11217, 11218, 11219, 11220, 11221, 11222, 11223, 11224, 11225, 11226, 11227
 11228, 11229, 11230, 11231, 11232, 11233, 11234, 11235, 11236, 11237, 11238, 11239, 11240, 11241, 11242, 11243
 11244, 11245, 11246, 11247, 11248, 11249, 11250, 11251, 11252, 11253, 11254, 11255, 11256, 11257, 11453, 11454
 11455, 11456, 11457, 11458, 11459, 11460, 11461, 11462, 11463, 11464, 11465, 11466, 11467, 11468, 11469, 11470
 11471, 11472, 11473, 11474, 11475, 11476, 11477, 11478, 11479, 11480, 11481, 11482, 11483, 11484, 11485, 11486
** ... 65 like lines cut
*Elset, elset=_filter_surface_S4, internal, generate
     8,  21184,      8
*Elset, elset=_filter_surface_S6, internal, generate
     1,  21177,      8
*Elset, elset=_filter_surface_S3, internal
   129,   130,   131,   132,   133,   134,   135,   136,   193,   194,   195,   196,   197,   198,   199,   200
   257,   258,   259,   260,   261,   262,   263,   264,   321,   322,   323,   324,   325,   326,   327,   328
   385,   386,   387,   388,   389,   390,   391,   392,   449,   450,   451,   452,   453,   454,   455,   456
   513,   514,   515,   516,   517,   518,   519,   520,   577,   578,   579,   580,   581,   582,   583,   584
   641,   642,   643,   644,   645,   646,   647,   648,   705,   706,   707,   708,   709,   710,   711,   712
   769,   770,   771,   772,   773,   774,   775,   776,   833,   834,   835,   836,   837,   838,   839,   840
   897,   898,   899,   900,   901,   902,   903,   904,   961,   962,   963,   964,   965,   966,   967,   968
  1025,  1026,  1027,  1028,  1029,  1030,  1031,  1032,  1089,  1090,  1091,  1092,  1093,  1094,  1095,  1096
  1153,  1154,  1155,  1156,  1157,  1158,  1159,  1160,  1217,  1218,  1219,  1220,  1221,  1222,  1223,  1224
  1281,  1282,  1283,  1284,  1285,  1286,  1287,  1288,  1345,  1346,  1347,  1348,  1349,  1350,  1351,  1352
  1409,  1410,  1411,  1412,  1413,  1414,  1415,  1416,  1473,  1474,  1475,  1476,  1477,  1478,  1479,  1480
  1537,  1538,  1539,  1540,  1541,  1542,  1543,  1544,  1601,  1602,  1603,  1604,  1605,  1606,  1607,  1608
  1665,  1666,  1667,  1668,  1669,  1670,  1671,  1672,  1729,  1730,  1731,  1732,  1733,  1734,  1735,  1736
  1793,  1794,  1795,  1796,  1797,  1798,  1799,  1800,  1857,  1858,  1859,  1860,  1861,  1862,  1863,  1864
  1921,  1922,  1923,  1924,  1925,  1926,  1927,  1928,  1985,  1986,  1987,  1988,  1989,  1990,  1991,  1992
  2049,  2050,  2051,  2052,  2053,  2054,  2055,  2056,  2113,  2114,  2115,  2116,  2117,  2118,  2119,  2120
  2177,  2178,  2179,  2180,  2181,  2182,  2183,  2184,  2241,  2242,  2243,  2244,  2245,  2246,  2247,  2248
  2305,  2306,  2307,  2308,  2309,  2310,  2311,  2312,  2369,  2370,  2371,  2372,  2373,  2374,  2375,  2376
  2433,  2434,  2435,  2436,  2437,  2438,  2439,  2440,  2497,  2498,  2499,  2500,  2501,  2502,  2503,  2504
  2561,  2562,  2563,  2564,  2565,  2566,  2567,  2568,  2625,  2626,  2627,  2628,  2629,  2630,  2631,  2632
** ... 145 like lines cut
*Elset, elset=_filter_surface_S5, internal
   185,   186,   187,   188,   189,   190,   191,   192,   249,   250,   251,   252,   253,   254,   255,   256
   313,   314,   315,   316,   317,   318,   319,   320,   377,   378,   379,   380,   381,   382,   383,   384
   441,   442,   443,   444,   445,   446,   447,   448,   505,   506,   507,   508,   509,   510,   511,   512
   569,   570,   571,   572,   573,   574,   575,   576,   633,   634,   635,   636,   637,   638,   639,   640
   697,   698,   699,   700,   701,   702,   703,   704,   761,   762,   763,   764,   765,   766,   767,   768
   825,   826,   827,   828,   829,   830,   831,   832,   889,   890,   891,   892,   893,   894,   895,   896
   953,   954,   955,   956,   957,   958,   959,   960,  1017,  1018,  1019,  1020,  1021,  1022,  1023,  1024
  1081,  1082,  1083,  1084,  1085,  1086,  1087,  1088,  1145,  1146,  1147,  1148,  1149,  1150,  1151,  1152
  1209,  1210,  1211,  1212,  1213,  1214,  1215,  1216,  1273,  1274,  1275,  1276,  1277,  1278,  1279,  1280
  1337,  1338,  1339,  1340,  1341,  1342,  1343,  1344,  1401,  1402,  1403,  1404,  1405,  1406,  1407,  1408
  1465,  1466,  1467,  1468,  1469,  1470,  1471,  1472,  1529,  1530,  1531,  1532,  1533,  1534,  1535,  1536
  1593,  1594,  1595,  1596,  1597,  1598,  1599,  1600,  1657,  1658,  1659,  1660,  1661,  1662,  1663,  1664
  1721,  1722,  1723,  1724,  1725,  1726,  1727,  1728,  1785,  1786,  1787,  1788,  1789,  1790,  1791,  1792
  1849,  1850,  1851,  1852,  1853,  1854,  1855,  1856,  1913,  1914,  1915,  1916,  1917,  1918,  1919,  1920
  1977,  1978,  1979,  1980,  1981,  1982,  1983,  1984,  2041,  2042,  2043,  2044,  2045,  2046,  2047,  2048
  2105,  2106,  2107,  2108,  2109,  2110,  2111,  2112,  2169,  2170,  2171,  2172,  2173,  2174,  2175,  2176
  2233,  2234,  2235,  2236,  2237,  2238,  2239,  2240,  2297,  2298,  2299,  2300,  2301,  2302,  2303,  2304
  2361,  2362,  2363,  2364,  2365,  2366,  2367,  2368,  2425,  2426,  2427,  2428,  2429,  2430,  2431,  2432
  2489,  2490,  2491,  2492,  2493,  2494,  2495,  2496,  2553,  2554,  2555,  2556,  2557,  2558,  2559,  2560
  2617,  2618,  2619,  2620,  2621,  2622,  2623,  2624,  2681,  2682,  2683,  2684,  2685,  2686,  2687,  2688
** ... 145 like lines cut
*Elset, elset=_filter_surface_S1, internal, generate
 21121,  21184,      1
*Surface, type=ELEMENT, name=filter_surface
_filter_surface_S4, S4
_filter_surface_S6, S6
_filter_surface_S3, S3
_filter_surface_S5, S5
_filter_surface_S1, S1
** Section: nitinol_SE508
*Solid Section, elset=All, material=ABQ_SUPER_ELASTIC_PLASTIC_SE508
,
*End Part
**  
*Part, name=IVC
*End Part
**  
*Part, name=sheath
*End Part
**  
**
** ASSEMBLY
**
*Assembly, name=Assembly
**  
*Instance, name=sheath, part=sheath
         0.5,           0.,           0.
         0.5,           0.,           0.,          0.5,           0.,           1.,          90.
*Node
      1,           0.,        -12.5,           0.
*Nset, nset=sheath-RefPt_, internal
1, 
*Surface, type=REVOLUTION, name=sheath_surface
START,          4.2, -10.3824034027761
 CIRCL,           3., -9.82071421427143,          4.4, -8.39242852856286
 CIRCL,          1.5,        -6.25,          6.5,        -6.25
 LINE,          1.5,        53.75
*Rigid Body, ref node=sheath-RefPt_, analytical surface=sheath_surface
*End Instance
**  
*Instance, name=strut_generic_IVCF, part=GIVCF_Rev1
          0., -0.390180644032257, 1.96157056080646
          0., -0.390180644032257, 1.96157056080646,           1., -0.390180644032257, 1.96157056080646, 11.2500001817377
*End Instance
**  
*Instance, name=IVC, part=IVC
         25.,           0.,           0.
         25.,           0.,           0.,          25.,  3.06161706478674e-17,           1.,          90.
*Node
      1,           0.,           0.,           0.
*Nset, nset=IVC-RefPt_, internal
1, 
*Surface, type=CYLINDER, name=IVC_surf
START,          14.,         -25.
 LINE,          14.,          25.
*Rigid Body, ref node=IVC-RefPt_, analytical surface=IVC_surf
*End Instance
**  
*Nset, nset=RP_IVC, instance=IVC
 1,
*Nset, nset=RP_sheath, instance=sheath
 1,
*End Assembly
** 
** MATERIALS
** 
*Material, name=ABQ_SUPER_ELASTIC_N3D
*Density
 6.5e-08,
*Depvar
     24,
*User Material, constants=15
40000.,  0.33,32000.,  0.33, 0.041,   6.7,  440.,  540.
   22.,   6.7,  250.,  140.,    0., 0.041,    0.
*Material, name=ABQ_SUPER_ELASTIC_PLASTIC_SE508
*Density
 6.5e-08,
*Depvar
     31,
*User Material, constants=30, unsymm
61779.,  0.33,29737.,  0.33, 0.035,   6.2,  383.,  430.
   37.,   8.5,  202.,  170.,  383.,    0.,    0.,    6.
  972., 0.074, 1076., 0.078, 1144., 0.084, 1230., 0.094
 1285., 0.108, 1311., 0.116, 1334., 0.137
*Material, name=ABQ_SUPER_ELASTIC_SE508
*Density
 6.5e-08,
*Depvar
     24,
*User Material, constants=15, unsymm
61779.,  0.33,29737.,  0.33, 0.035,   6.2,  383.,  430.
   37.,   8.5,  202.,  170.,  383.,    0.,    0.
** 
** INTERACTION PROPERTIES
** 
*Surface Interaction, name=_filter_vein_quasi_static-Prop
1.,
*Friction, slip tolerance=0.005
 0.02,
*Surface Behavior, penalty
, , 0.001
*Surface Interaction, name=filter_vein_high_friction
1.,
*Friction, slip tolerance=0.005
 0.2,
*Surface Behavior, penalty
, , 0.001
*Surface Interaction, name=sheath--filter
1.,
*Friction, slip tolerance=0.005
 0.02,
*Surface Behavior, penalty
, , 0.001
** 
** BOUNDARY CONDITIONS
** 
** Name: fix_filter Type: Displacement/Rotation
*Boundary
strut_generic_IVCF.filter_top2, 1, 1
strut_generic_IVCF.filter_top2, 2, 2
strut_generic_IVCF.filter_top2, 3, 3
** Name: move_sheath Type: Displacement/Rotation
*Boundary
RP_sheath, 1, 1
RP_sheath, 2, 2
RP_sheath, 3, 3
RP_sheath, 4, 4
RP_sheath, 5, 5
RP_sheath, 6, 6
** Name: move_vein Type: Displacement/Rotation
*Boundary
RP_IVC, 1, 1
RP_IVC, 2, 2
RP_IVC, 3, 3
RP_IVC, 4, 4
RP_IVC, 5, 5
RP_IVC, 6, 6
** 
** PREDEFINED FIELDS
** 
** Name: initial_temperature   Type: Temperature
*Initial Conditions, type=TEMPERATURE
strut_generic_IVCF.all_filter_geom, 37.
** 
** INTERACTIONS
** 
** Interaction: filter_vein_quasi_static
*Contact Pair, interaction=_filter_vein_quasi_static-Prop, type=SURFACE TO SURFACE
strut_generic_IVCF.filter_surface, IVC.IVC_surf
** Interaction: sheath_filter_quasi_static
*Contact Pair, interaction=sheath--filter
strut_generic_IVCF.filter_surface, sheath.sheath_surface
** ----------------------------------------------------------------
** 
** STEP: sheath_filter_quasi_static
** 
*Step, name=sheath_filter_quasi_static, nlgeom=YES, inc=10000, unsymm=YES
*Dynamic
0.01,1.,1e-10,0.01
** 
** BOUNDARY CONDITIONS
** 
** Name: move_sheath Type: Displacement/Rotation
*Boundary
RP_sheath, 1, 1, 50.
** 
** INTERACTIONS
** 
** Interaction: filter_vein_quasi_static
*Model Change, type=CONTACT PAIR, remove
strut_generic_IVCF.filter_surface, IVC.IVC_surf
** 
** OUTPUT REQUESTS
** 
*Restart, write, frequency=0
** 
** FIELD OUTPUT: F-Output-2
** 
*Output, field, time interval=0.01, time marks=NO
*Node Output
A, CF, RF, U, V
*Element Output, directions=YES
IVOL, LE, PE, PEEQ, PEMAG, S
*Contact Output
CDISP, CFORCE, CNAREA, CSTATUS, CSTRESS
** 
** HISTORY OUTPUT: H-Output-2
** 
*Output, history, time interval=0.01, time marks=NO
*Energy Output
ALLAE, ALLCD, ALLDMD, ALLEE, ALLFD, ALLIE, ALLJD, ALLKE, ALLKL, ALLPD, ALLQB, ALLSD, ALLSE, ALLVD, ALLWK, ETOTAL
*Contact Output
CAREA, CFNM
*End Step
** ----------------------------------------------------------------
** 
** STEP: unsheath_quasi_static
** 
*Step, name=unsheath_quasi_static, nlgeom=YES, inc=100000, unsymm=YES
*Dynamic,application=QUASI-STATIC,initial=NO
0.01,1.,1e-10,0.01
** 
** BOUNDARY CONDITIONS
** 
** Name: move_sheath Type: Displacement/Rotation
*Boundary
RP_sheath, 1, 1
** 
** INTERACTIONS
** 
** Interaction: filter_vein_quasi_static
*Model Change, type=CONTACT PAIR, add
strut_generic_IVCF.filter_surface, IVC.IVC_surf
** 
** OUTPUT REQUESTS
** 
*Restart, write, frequency=0
** 
** FIELD OUTPUT: F-Output-2
** 
*Output, field, time interval=0.01, time marks=NO
*Node Output
A, CF, RF, U, V
*Element Output, directions=YES
IVOL, LE, PE, PEEQ, PEMAG, S
*Contact Output
CDISP, CFORCE, CNAREA, CSTATUS, CSTRESS
** 
** HISTORY OUTPUT: H-Output-2
** 
*Output, history, time interval=0.01, time marks=NO
*Energy Output
ALLAE, ALLCD, ALLDMD, ALLEE, ALLFD, ALLIE, ALLJD, ALLKE, ALLKL, ALLPD, ALLQB, ALLSD, ALLSE, ALLVD, ALLWK, ETOTAL
*Contact Output
CAREA, CFNM
*End Step
** ----------------------------------------------------------------
** 
** STEP: valsalva1
** 
*Step, name=valsalva1, nlgeom=YES, inc=10000, unsymm=YES
*Dynamic
0.01,1.,1e-10,0.01
** 
** BOUNDARY CONDITIONS
** 
** Name: fix_filter Type: Displacement/Rotation
*Boundary, op=NEW
strut_generic_IVCF.filter_top2, 2, 2
strut_generic_IVCF.filter_top2, 3, 3
strut_generic_IVCF.filter_top2, 4, 4
strut_generic_IVCF.filter_top2, 5, 5
strut_generic_IVCF.filter_top2, 6, 6
** Name: move_sheath Type: Displacement/Rotation
*Boundary, op=NEW
RP_sheath, 1, 1
RP_sheath, 2, 2
RP_sheath, 3, 3
RP_sheath, 4, 4
RP_sheath, 5, 5
RP_sheath, 6, 6
** Name: move_vein Type: Displacement/Rotation
*Boundary, op=NEW
RP_IVC, 1, 1
RP_IVC, 2, 2, -7.
RP_IVC, 3, 3
RP_IVC, 4, 4
RP_IVC, 5, 5
RP_IVC, 6, 6
** 
** INTERACTIONS
** 
** Interaction: filter_vein_quasi_static
*Change Friction, interaction=_filter_vein_quasi_static-Prop
*Friction, slip tolerance=0.005
 0.2,
** 
** OUTPUT REQUESTS
** 
*Restart, write, frequency=0
** 
** FIELD OUTPUT: F-Output-2
** 
*Output, field, time interval=0.01, time marks=NO
*Node Output
A, CF, RF, U, V
*Element Output, directions=YES
IVOL, LE, PE, PEEQ, PEMAG, S
*Contact Output
CDISP, CFORCE, CNAREA, CSTATUS, CSTRESS
** 
** HISTORY OUTPUT: H-Output-2
** 
*Output, history, time interval=0.01, time marks=NO
*Energy Output
ALLAE, ALLCD, ALLDMD, ALLEE, ALLFD, ALLIE, ALLJD, ALLKE, ALLKL, ALLPD, ALLQB, ALLSD, ALLSE, ALLVD, ALLWK, ETOTAL
*Contact Output
CAREA, CFNM
*End Step
** ----------------------------------------------------------------
** 
** STEP: relax1
** 
*Step, name=relax1, nlgeom=YES, inc=10000, unsymm=YES
*Dynamic
0.01,1.,1e-10,0.01
** 
** BOUNDARY CONDITIONS
** 
** Name: move_vein Type: Displacement/Rotation
*Boundary
RP_IVC, 2, 2
** 
** OUTPUT REQUESTS
** 
*Restart, write, frequency=0
** 
** FIELD OUTPUT: F-Output-2
** 
*Output, field, time interval=0.01, time marks=NO
*Node Output
A, CF, RF, U, V
*Element Output, directions=YES
IVOL, LE, PE, PEEQ, PEMAG, S
*Contact Output
CDISP, CFORCE, CNAREA, CSTATUS, CSTRESS
** 
** HISTORY OUTPUT: H-Output-2
** 
*Output, history, time interval=0.01, time marks=NO
*Energy Output
ALLAE, ALLCD, ALLDMD, ALLEE, ALLFD, ALLIE, ALLJD, ALLKE, ALLKL, ALLPD, ALLQB, ALLSD, ALLSE, ALLVD, ALLWK, ETOTAL
*Contact Output
CAREA, CFNM
*End Step
** ----------------------------------------------------------------
** 
** STEP: valsalva2
** 
*Step, name=valsalva2, nlgeom=YES, inc=10000, unsymm=YES
*Dynamic
0.01,1.,1e-10,0.01
** 
** BOUNDARY CONDITIONS
** 
** Name: move_vein Type: Displacement/Rotation
*Boundary
RP_IVC, 2, 2, -7.
** 
** OUTPUT REQUESTS
** 
*Restart, write, frequency=0
** 
** FIELD OUTPUT: F-Output-2
** 
*Output, field, time interval=0.01, time marks=NO
*Node Output
A, CF, RF, U, V
*Element Output, directions=YES
IVOL, LE, PE, PEEQ, PEMAG, S
*Contact Output
CDISP, CFORCE, CNAREA, CSTATUS, CSTRESS
** 
** HISTORY OUTPUT: H-Output-2
** 
*Output, history, time interval=0.01, time marks=NO
*Energy Output
ALLAE, ALLCD, ALLDMD, ALLEE, ALLFD, ALLIE, ALLJD, ALLKE, ALLKL, ALLPD, ALLQB, ALLSD, ALLSE, ALLVD, ALLWK, ETOTAL
*Contact Output
CAREA, CFNM
*End Step
** ----------------------------------------------------------------
** 
** STEP: relax2
** 
*Step, name=relax2, nlgeom=YES, inc=10000, unsymm=YES
*Dynamic
0.01,1.,1e-10,0.01
** 
** BOUNDARY CONDITIONS
** 
** Name: move_vein Type: Displacement/Rotation
*Boundary
RP_IVC, 2, 2
** 
** OUTPUT REQUESTS
** 
*Restart, write, frequency=0
** 
** FIELD OUTPUT: F-Output-2
** 
*Output, field, time interval=0.01, time marks=NO
*Node Output
A, CF, RF, U, V
*Element Output, directions=YES
IVOL, LE, PE, PEEQ, PEMAG, S
*Contact Output
CDISP, CFORCE, CNAREA, CSTATUS, CSTRESS
** 
** HISTORY OUTPUT: H-Output-2
** 
*Output, history, time interval=0.01, time marks=NO
*Energy Output
ALLAE, ALLCD, ALLDMD, ALLEE, ALLFD, ALLIE, ALLJD, ALLKE, ALLKL, ALLPD, ALLQB, ALLSD, ALLSE, ALLVD, ALLWK, ETOTAL
*Contact Output
CAREA, CFNM
*End Step
** ----------------------------------------------------------------
** 
** STEP: valsalva3
** 
*Step, name=valsalva3, nlgeom=YES, inc=10000, unsymm=YES
*Dynamic
0.01,1.,1e-10,0.01
** 
** BOUNDARY CONDITIONS
** 
** Name: move_vein Type: Displacement/Rotation
*Boundary
RP_IVC, 2, 2, -7.
** 
** OUTPUT REQUESTS
** 
*Restart, write, frequency=0
** 
** FIELD OUTPUT: F-Output-2
** 
*Output, field, time interval=0.01, time marks=NO
*Node Output
A, CF, RF, U, V
*Element Output, directions=YES
IVOL, LE, PE, PEEQ, PEMAG, S
*Contact Output
CDISP, CFORCE, CNAREA, CSTATUS, CSTRESS
** 
** HISTORY OUTPUT: H-Output-2
** 
*Output, history, time interval=0.01, time marks=NO
*Energy Output
ALLAE, ALLCD, ALLDMD, ALLEE, ALLFD, ALLIE, ALLJD, ALLKE, ALLKL, ALLPD, ALLQB, ALLSD, ALLSE, ALLVD, ALLWK, ETOTAL
*Contact Output
CAREA, CFNM
*End Step
** ----------------------------------------------------------------
** 
** STEP: relax3
** 
*Step, name=relax3, nlgeom=YES, inc=10000, unsymm=YES
*Dynamic
0.01,1.,1e-10,0.01
** 
** BOUNDARY CONDITIONS
** 
** Name: move_vein Type: Displacement/Rotation
*Boundary
RP_IVC, 2, 2
** 
** OUTPUT REQUESTS
** 
*Restart, write, frequency=0
** 
** FIELD OUTPUT: F-Output-2
** 
*Output, field, time interval=0.01, time marks=NO
*Node Output
A, CF, RF, U, V
*Element Output, directions=YES
IVOL, LE, PE, PEEQ, PEMAG, S
*Contact Output
CDISP, CFORCE, CNAREA, CSTATUS, CSTRESS
** 
** HISTORY OUTPUT: H-Output-2
** 
*Output, history, time interval=0.01, time marks=NO
*Energy Output
ALLAE, ALLCD, ALLDMD, ALLEE, ALLFD, ALLIE, ALLJD, ALLKE, ALLKL, ALLPD, ALLQB, ALLSD, ALLSE, ALLVD, ALLWK, ETOTAL
*Contact Output
CAREA, CFNM
*End Step
